[TITLE]
;;Project Title/Notes

[OPTIONS]
;;Option             Value
FLOW_UNITS           CMS
INFILTRATION         HORTON
FLOW_ROUTING         KINWAVE
LINK_OFFSETS         DEPTH
MIN_SLOPE            0
ALLOW_PONDING        NO
SKIP_STEADY_STATE    YES

START_DATE           01/01/2016
START_TIME           00:00:00
REPORT_START_DATE    01/01/2016
REPORT_START_TIME    00:00:00
END_DATE             01/01/2016
END_TIME             04:00:00
SWEEP_START          01/01
SWEEP_END            01/01
DRY_DAYS             0
REPORT_STEP          00:01:00
WET_STEP             00:01:00
DRY_STEP             00:01:00
ROUTING_STEP         0:01:00 
RULE_STEP            00:00:00

INERTIAL_DAMPING     PARTIAL
NORMAL_FLOW_LIMITED  BOTH
FORCE_MAIN_EQUATION  H-W
VARIABLE_STEP        0.75
LENGTHENING_STEP     0
MIN_SURFAREA         12.557
MAX_TRIALS           8
HEAD_TOLERANCE       0.005
SYS_FLOW_TOL         5
LAT_FLOW_TOL         5
MINIMUM_STEP         0.5
THREADS              1

[EVAPORATION]
;;Data Source    Parameters
;;-------------- ----------------
CONSTANT         0.0
DRY_ONLY         NO

[RAINGAGES]
;;Name           Format    Interval SCF      Source    
;;-------------- --------- ------ ------ ----------
1                INTENSITY 0:01     1.0      TIMESERIES NJ_5y2h         

[SUBCATCHMENTS]
;;Name           Rain Gage        Outlet           Area     %Imperv  Width    %Slope   CurbLen  SnowPack        
;;-------------- ---------------- ---------------- -------- -------- -------- -------- -------- ----------------
S6-2             1                S6-1             0.54     1        46.28    37.09    0                        
S7-1             1                S7               1.14     1        37.89    33.01    0                        
S9               1                O9               0.80     1        28.07    36.68    0                        
S6-1             1                S6               0.66     1        27.08    39.94    0                        
S5-1             1                S5               0.64     1        31.51    43.36    0                        
S4-1             1                S4               1.30     1        75.75    40.39    0                        
S3-1             1                S3               0.51     1        60.39    43.02    0                        
S2-1             1                S2               0.93     1        90.44    31.87    0                        
S1-1             1                S1               0.81     1        55.67    30.85    0                        
S14-1            1                S14              1.23     1        86.30    32.66    0                        
S11-1            1                S11              0.77     1        51.13    47.47    0                        
S12-2            1                S12-1            0.82     5        62.97    42.03    0                        
S12-3            1                S12-1            1.98     1        69.16    31.86    0                        
S12-4            1                S12              2.63     1        108.24   34.62    0                        
S13-1            1                S13              1.98     1        96.82    31.84    0                        
S10-1            1                S10              1.05     1        69.27    35.52    0                        
S12-1            1                S12              0.95     1        53.82    25.29    0                        
S4               1                O4               1.17     4        113.22   31.90    0                        
S3               1                O3               1.19     4        122.56   33.63    0                        
S2               1                O2               0.77     20       83.50    37.23    0                        
S14              1                O14              0.56     4        47.85    30.44    0                        
S12              1                O12              1.47     4        104.99   15.12    0                        
S13              1                O13              0.81     20       75.19    19.90    0                        
S8               1                O8               1.72     4        138.39   40.91    0                        
S7               1                O7               1.67     4        90.54    31.86    0                        
S6               1                O6               1.85     20       111.88   25.88    0                        
S5               1                O5               0.91     4        50.73    40.15    0                        
S1               1                O1               1.35     4        107.11   39.79    0                        
S11              1                O11              0.82     4        55.60    46.49    0                        
S10              1                O10              1.24     4        89.02    39.16    0                        

[SUBAREAS]
;;Subcatchment   N-Imperv   N-Perv     S-Imperv   S-Perv     PctZero    RouteTo    PctRouted 
;;-------------- ---------- ---------- ---------- ---------- ---------- ---------- ----------
S6-2             0.04       0.8        2.54       7.62       25         OUTLET    
S7-1             0.04       0.8        2.54       7.62       25         OUTLET    
S9               0.04       0.8        2.54       7.62       25         OUTLET    
S6-1             0.04       0.8        2.54       7.62       25         OUTLET    
S5-1             0.04       0.8        2.54       7.62       25         OUTLET    
S4-1             0.04       0.8        2.54       7.62       25         OUTLET    
S3-1             0.04       0.8        2.54       7.62       25         OUTLET    
S2-1             0.04       0.8        2.54       7.62       25         OUTLET    
S1-1             0.04       0.8        2.54       7.62       25         OUTLET    
S14-1            0.04       0.8        2.54       7.62       25         OUTLET    
S11-1            0.04       0.8        2.54       7.62       25         OUTLET    
S12-2            0.04       0.8        2.54       7.62       25         OUTLET    
S12-3            0.04       0.8        2.54       7.62       25         OUTLET    
S12-4            0.04       0.8        2.54       7.62       25         OUTLET    
S13-1            0.04       0.8        2.54       7.62       25         OUTLET    
S10-1            0.04       0.8        2.54       7.62       25         OUTLET    
S12-1            0.04       0.8        2.54       7.62       25         OUTLET    
S4               0.04       0.8        2.54       7.62       25         OUTLET    
S3               0.04       0.8        2.54       7.62       25         OUTLET    
S2               0.04       0.8        2.54       7.62       25         OUTLET    
S14              0.04       0.8        2.54       7.62       25         OUTLET    
S12              0.04       0.8        2.54       7.62       25         OUTLET    
S13              0.04       0.8        2.54       7.62       25         OUTLET    
S8               0.04       0.8        2.54       7.62       25         OUTLET    
S7               0.04       0.8        2.54       7.62       25         OUTLET    
S6               0.04       0.8        2.54       7.62       25         OUTLET    
S5               0.04       0.8        2.54       7.62       25         OUTLET    
S1               0.04       0.8        2.54       7.62       25         OUTLET    
S11              0.04       0.8        2.54       7.62       25         OUTLET    
S10              0.04       0.8        2.54       7.62       25         OUTLET    

[INFILTRATION]
;;Subcatchment   Param1     Param2     Param3     Param4     Param5    
;;-------------- ---------- ---------- ---------- ---------- ----------
S6-2             3.0        0.5        4          7          0         
S7-1             3.0        0.5        4          7          0         
S9               3.0        0.5        4          7          0         
S6-1             3.0        0.5        4          7          0         
S5-1             3.0        0.5        4          7          0         
S4-1             3.0        0.5        4          7          0         
S3-1             3.0        0.5        4          7          0         
S2-1             3.0        0.5        4          7          0         
S1-1             3.0        0.5        4          7          0         
S14-1            3.0        0.5        4          7          0         
S11-1            3.0        0.5        4          7          0         
S12-2            3.0        0.5        4          7          0         
S12-3            3.0        0.5        4          7          0         
S12-4            3.0        0.5        4          7          0         
S13-1            3.0        0.5        4          7          0         
S10-1            3.0        0.5        4          7          0         
S12-1            3.0        0.5        4          7          0         
S4               3.0        0.5        4          7          0         
S3               3.0        0.5        4          7          0         
S2               3.0        0.5        4          7          0         
S14              3.0        0.5        4          7          0         
S12              3.0        0.5        4          7          0         
S13              3.0        0.5        4          7          0         
S8               3.0        0.5        4          7          0         
S7               3.0        0.5        4          7          0         
S6               3.0        0.5        4          7          0         
S5               3.0        0.5        4          7          0         
S1               3.0        0.5        4          7          0         
S11              3.0        0.5        4          7          0         
S10              3.0        0.5        4          7          0         

[LID_CONTROLS]
;;Name           Type/Layer Parameters
;;-------------- ---------- ----------
BR               BC
BR               SURFACE    500        0.8        0.1        1.0        5         
BR               SOIL       400        0.5        0.2        0.1        3.3        10.0       87        
BR               STORAGE    600        0.75       10         0          NO        
BR               DRAIN      0          0.5        6          6          0          0                    

[LID_USAGE]
;;Subcatchment   LID Process      Number  Area       Width      InitSat    FromImp    ToPerv     RptFile                  DrainTo          FromPerv  
;;-------------- ---------------- ------- ---------- ---------- ---------- ---------- ---------- ------------------------ ---------------- ----------
S6-2             BR               1       0          0          0          0          0          *                        *                0               
S7-1             BR               1       0          0          0          0          0          *                        *                0               
S9               BR               1       0          0          0          0          0          *                        *                0               
S6-1             BR               1       0          0          0          0          0          *                        *                0               
S5-1             BR               1       0          0          0          0          0          *                        *                0               
S4-1             BR               1       0          0          0          0          0          *                        *                0               
S3-1             BR               1       0          0          0          0          0          *                        *                0               
S2-1             BR               1       0          0          0          0          0          *                        *                0               
S1-1             BR               1       0          0          0          0          0          *                        *                0               
S14-1            BR               1       0          0          0          0          0          *                        *                0               
S11-1            BR               1       0          0          0          0          0          *                        *                0               
S12-2            BR               1       0          0          0          0          0          *                        *                0               
S12-3            BR               1       0          0          0          0          0          *                        *                0               
S12-4            BR               1       0          0          0          0          0          *                        *                0               
S13-1            BR               1       0          0          0          0          0          *                        *                0               
S10-1            BR               1       0          0          0          0          0          *                        *                0               
S12-1            BR               1       0          0          0          0          0          *                        *                0               
S4               BR               1       0          0          0          0          0          *                        *                0               
S3               BR               1       0          0          0          0          0          *                        *                0               
S2               BR               1       0          0          0          0          0          *                        *                0               
S14              BR               1       0          0          0          0          0          *                        *                0               
S12              BR               1       0          0          0          0          0          *                        *                0               
S13              BR               1       0          0          0          0          0          *                        *                0               
S8               BR               1       0          0          0          0          0          *                        *                0               
S7               BR               1       0          0          0          0          0          *                        *                0               
S6               BR               1       0          0          0          0          0          *                        *                0               
S5               BR               1       0          0          0          0          0          *                        *                0               
S1               BR               1       0          0          0          0          0          *                        *                0               
S11              BR               1       0          0          0          0          0          *                        *                0               
S10              BR               1       0          0          0          0          0          *                        *                0               

[OUTFALLS]
;;Name           Elevation  Type       Stage Data       Gated    Route To        
;;-------------- ---------- ---------- ---------------- -------- ----------------
O_all            0          FREE                        NO                       
O1               0          FREE                        NO                       
O2               0          FREE                        NO                       
O3               0          FREE                        NO                       
O4               0          FREE                        NO                       
O5               0          FREE                        NO                       
O6               0          FREE                        NO                       
O7               0          FREE                        NO                       
O8               0          FREE                        NO                       
O9               0          FREE                        NO                       
O10              0          FREE                        NO                       
O11              0          FREE                        NO                       
O12              0          FREE                        NO                       
O13              0          FREE                        NO                       
O14              0          FREE                        NO                       

[TIMESERIES]
;;Name           Date       Time       Value     
;;-------------- ---------- ---------- ----------
rain                        0:00       3.77      
rain                        0:01       3.90      
rain                        0:02       4.04      
rain                        0:03       4.18      
rain                        0:04       4.33      
rain                        0:05       4.49      
rain                        0:06       4.66      
rain                        0:07       4.84      
rain                        0:08       5.03      
rain                        0:09       5.23      
rain                        0:10       5.44      
rain                        0:11       5.67      
rain                        0:12       5.91      
rain                        0:13       6.16      
rain                        0:14       6.43      
rain                        0:15       6.72      
rain                        0:16       7.03      
rain                        0:17       7.36      
rain                        0:18       7.72      
rain                        0:19       8.09      
rain                        0:20       8.50      
rain                        0:21       8.94      
rain                        0:22       9.41      
rain                        0:23       9.93      
rain                        0:24       10.48     
rain                        0:25       11.08     
rain                        0:26       11.73     
rain                        0:27       12.44     
rain                        0:28       13.22     
rain                        0:29       14.07     
rain                        0:30       15.01     
rain                        0:31       16.04     
rain                        0:32       17.18     
rain                        0:33       18.44     
rain                        0:34       19.85     
rain                        0:35       21.42     
rain                        0:36       23.19     
rain                        0:37       25.18     
rain                        0:38       27.44     
rain                        0:39       30.01     
rain                        0:40       32.96     
rain                        0:41       36.36     
rain                        0:42       40.31     
rain                        0:43       44.94     
rain                        0:44       50.40     
rain                        0:45       56.92     
rain                        0:46       64.78     
rain                        0:47       74.37     
rain                        0:48       86.24     
rain                        0:49       78.04     
rain                        0:50       70.95     
rain                        0:51       64.78     
rain                        0:52       59.37     
rain                        0:53       54.62     
rain                        0:54       50.40     
rain                        0:55       46.66     
rain                        0:56       43.31     
rain                        0:57       40.31     
rain                        0:58       37.61     
rain                        0:59       35.17     
rain                        1:00       32.96     
rain                        1:01       30.95     
rain                        1:02       29.12     
rain                        1:03       27.44     
rain                        1:04       25.90     
rain                        1:05       24.49     
rain                        1:06       23.19     
rain                        1:07       21.99     
rain                        1:08       20.88     
rain                        1:09       19.85     
rain                        1:10       18.90     
rain                        1:11       18.01     
rain                        1:12       17.18     
rain                        1:13       16.41     
rain                        1:14       15.68     
rain                        1:15       15.01     
rain                        1:16       14.37     
rain                        1:17       13.78     
rain                        1:18       13.22     
rain                        1:19       12.69     
rain                        1:20       12.20     
rain                        1:21       11.73     
rain                        1:22       11.29     
rain                        1:23       10.87     
rain                        1:24       10.48     
rain                        1:25       10.10     
rain                        1:26       9.75      
rain                        1:27       9.41      
rain                        1:28       9.09      
rain                        1:29       8.79      
rain                        1:30       8.50      
rain                        1:31       8.23      
rain                        1:32       7.97      
rain                        1:33       7.72      
rain                        1:34       7.48      
rain                        1:35       7.25      
rain                        1:36       7.03      
rain                        1:37       6.82      
rain                        1:38       6.62      
rain                        1:39       6.43      
rain                        1:40       6.25      
rain                        1:41       6.08      
rain                        1:42       5.91      
rain                        1:43       5.75      
rain                        1:44       5.59      
rain                        1:45       5.44      
rain                        1:46       5.30      
rain                        1:47       5.16      
rain                        1:48       5.03      
rain                        1:49       4.90      
rain                        1:50       4.78      
rain                        1:51       4.66      
rain                        1:52       4.55      
rain                        1:53       4.44      
rain                        1:54       4.33      
rain                        1:55       4.23      
rain                        1:56       4.13      
rain                        1:57       4.04      
rain                        1:58       3.94      
rain                        1:59       3.85      
rain                        2:00       3.77      
;
2017rain         1/1/2017   1          0         
2017rain         1/2/2017   2          0         
2017rain         1/3/2017   3          0         
2017rain         1/4/2017   4          1.9       
2017rain         1/5/2017   5          27.3      
2017rain         1/6/2017   6          7.2       
2017rain         1/7/2017   7          18.7      
2017rain         1/8/2017   8          0         
2017rain         1/9/2017   9          0         
2017rain         1/10/2017  10         0         
2017rain         1/11/2017  11         0         
2017rain         1/12/2017  12         0         
2017rain         1/13/2017  13         0         
2017rain         1/14/2017  14         0         
2017rain         1/15/2017  15         0         
2017rain         1/16/2017  16         0         
2017rain         1/17/2017  17         0         
2017rain         1/18/2017  18         3.7       
2017rain         1/19/2017  19         0.1       
2017rain         1/20/2017  20         0         
2017rain         1/21/2017  21         0         
2017rain         1/22/2017  22         0         
2017rain         1/23/2017  23         0         
2017rain         1/24/2017  24         0         
2017rain         1/25/2017  25         0         
2017rain         1/26/2017  26         0         
2017rain         1/27/2017  27         0         
2017rain         1/28/2017  28         0         
2017rain         1/29/2017  29         0.4       
2017rain         1/30/2017  30         0         
2017rain         1/31/2017  31         0         
2017rain         2/1/2017   32         0         
2017rain         2/2/2017   33         0         
2017rain         2/3/2017   34         3         
2017rain         2/4/2017   35         0.1       
2017rain         2/5/2017   36         0         
2017rain         2/6/2017   37         0         
2017rain         2/7/2017   38         0         
2017rain         2/8/2017   39         6.3       
2017rain         2/9/2017   40         0         
2017rain         2/10/2017  41         0         
2017rain         2/11/2017  42         0         
2017rain         2/12/2017  43         0         
2017rain         2/13/2017  44         0         
2017rain         2/14/2017  45         0         
2017rain         2/15/2017  46         0         
2017rain         2/16/2017  47         1.2       
2017rain         2/17/2017  48         0         
2017rain         2/18/2017  49         0         
2017rain         2/19/2017  50         0         
2017rain         2/20/2017  51         2.9       
2017rain         2/21/2017  52         0.1       
2017rain         2/22/2017  53         25.2      
2017rain         2/23/2017  54         0         
2017rain         2/24/2017  55         0         
2017rain         2/25/2017  56         0         
2017rain         2/26/2017  57         0         
2017rain         2/27/2017  58         0         
2017rain         2/28/2017  59         0         
2017rain         3/1/2017   60         0.1       
2017rain         3/2/2017   61         0         
2017rain         3/3/2017   62         0         
2017rain         3/4/2017   63         0         
2017rain         3/5/2017   64         1.2       
2017rain         3/6/2017   65         0         
2017rain         3/7/2017   66         0         
2017rain         3/8/2017   67         0         
2017rain         3/9/2017   68         0         
2017rain         3/10/2017  69         0         
2017rain         3/11/2017  70         0         
2017rain         3/12/2017  71         6.9       
2017rain         3/13/2017  72         4         
2017rain         3/14/2017  73         0         
2017rain         3/15/2017  74         0         
2017rain         3/16/2017  75         0         
2017rain         3/17/2017  76         0         
2017rain         3/18/2017  77         1.3       
2017rain         3/19/2017  78         1.3       
2017rain         3/20/2017  79         8         
2017rain         3/21/2017  80         0.2       
2017rain         3/22/2017  81         6.4       
2017rain         3/23/2017  82         0.3       
2017rain         3/24/2017  83         13.3      
2017rain         3/25/2017  84         0         
2017rain         3/26/2017  85         0         
2017rain         3/27/2017  86         0         
2017rain         3/28/2017  87         0         
2017rain         3/29/2017  88         0         
2017rain         3/30/2017  89         6.5       
2017rain         3/31/2017  90         5.6       
2017rain         4/1/2017   91         0         
2017rain         4/2/2017   92         0         
2017rain         4/3/2017   93         0         
2017rain         4/4/2017   94         0         
2017rain         4/5/2017   95         2.4       
2017rain         4/6/2017   96         16.6      
2017rain         4/7/2017   97         0.3       
2017rain         4/8/2017   98         0         
2017rain         4/9/2017   99         47.8      
2017rain         4/10/2017  100        13.3      
2017rain         4/11/2017  101        1         
2017rain         4/12/2017  102        0         
2017rain         4/13/2017  103        0         
2017rain         4/14/2017  104        0         
2017rain         4/15/2017  105        0         
2017rain         4/16/2017  106        23.6      
2017rain         4/17/2017  107        10.8      
2017rain         4/18/2017  108        0         
2017rain         4/19/2017  109        0         
2017rain         4/20/2017  110        0.1       
2017rain         4/21/2017  111        0         
2017rain         4/22/2017  112        0         
2017rain         4/23/2017  113        0         
2017rain         4/24/2017  114        0         
2017rain         4/25/2017  115        0.8       
2017rain         4/26/2017  116        1.2       
2017rain         4/27/2017  117        0         
2017rain         4/28/2017  118        0         
2017rain         4/29/2017  119        0         
2017rain         4/30/2017  120        0         
2017rain         5/1/2017   121        0         
2017rain         5/2/2017   122        4.9       
2017rain         5/3/2017   123        0         
2017rain         5/4/2017   124        24.5      
2017rain         5/5/2017   125        0         
2017rain         5/6/2017   126        0         
2017rain         5/7/2017   127        0         
2017rain         5/8/2017   128        7.9       
2017rain         5/9/2017   129        0.1       
2017rain         5/10/2017  130        0         
2017rain         5/11/2017  131        3.5       
2017rain         5/12/2017  132        28.6      
2017rain         5/13/2017  133        0         
2017rain         5/14/2017  134        0         
2017rain         5/15/2017  135        0         
2017rain         5/16/2017  136        0         
2017rain         5/17/2017  137        0         
2017rain         5/18/2017  138        0         
2017rain         5/19/2017  139        0         
2017rain         5/20/2017  140        0         